Circuit: * D:\Project\2020-2\DigitalSystem\Inv2in1MUX.asc

WARNING: Less than two connections to node A.  This node is used by V§A.
WARNING: Less than two connections to node B.  This node is used by V§B.
Direct Newton iteration for .op point succeeded.

Date: Sat Oct 10 23:25:23 2020
Total elapsed time: 3.886 seconds.

tnom = 27
temp = 27
method = modified trap
totiter = 101873
traniter = 101862
tranpoints = 50266
accept = 50202
rejected = 64
matrix size = 50
fillins = 0
solver = Normal
Matrix Compiler1: 5.01 KB object code size  0.9/0.5/[0.3]
Matrix Compiler2: 5.62 KB object code size  0.4/0.6/[0.3]

