Circuit: * D:\Project\2020-2\DigitalSystem\LTSpice\FA.asc

WARNING: Less than two connections to node CBAR.  This node is used by V§CBAR.
WARNING: Less than two connections to node C.  This node is used by V§C.
Direct Newton iteration for .op point succeeded.

Date: Sun Oct 25 19:48:51 2020
Total elapsed time: 6.861 seconds.

tnom = 27
temp = 27
method = modified trap
totiter = 100532
traniter = 100512
tranpoints = 50208
accept = 50154
rejected = 54
matrix size = 87
fillins = 4
solver = Normal
Matrix Compiler1: 11.21 KB object code size  2.3/1.0/[0.8]
Matrix Compiler2: 10.68 KB object code size  1.0/1.1/[0.6]

