Circuit: * D:\Project\2020-2\DigitalSystem\LTSpice\NAND.asc

Direct Newton iteration for .op point succeeded.

Date: Sun Oct 25 19:50:55 2020
Total elapsed time: 1.912 seconds.

tnom = 27
temp = 27
method = modified trap
totiter = 101878
traniter = 101870
tranpoints = 50226
accept = 50169
rejected = 57
matrix size = 24
fillins = 0
solver = Normal
Matrix Compiler1: 2.18 KB object code size  0.4/0.2/[0.2]
Matrix Compiler2: 2.69 KB object code size  0.2/0.3/[0.2]

